* SPICE3 file created from user_analog_project_wrapper.ext - technology: sky130A

.subckt M2_1 VSUBS a_40_n109# a_n40_n197# a_n98_n109#
X0 a_40_n109# a_n40_n197# a_n98_n109# VSUBS sky130_fd_pr__nfet_01v8_lvt ad=2.9e+11p pd=2.58e+06u as=2.9e+11p ps=2.58e+06u w=1e+06u l=400000u
.ends

.subckt M2_inv VSUBS a_n98_n104# w_n236_n324# a_40_n104# a_n40_n201#
X0 a_40_n104# a_n40_n201# a_n98_n104# w_n236_n324# sky130_fd_pr__pfet_01v8_lvt ad=2.9e+11p pd=2.58e+06u as=2.9e+11p ps=2.58e+06u w=1e+06u l=400000u
.ends

.subckt M1_inv VSUBS a_n98_n171# a_n40_n197# a_40_n171#
X0 a_40_n171# a_n40_n197# a_n98_n171# VSUBS sky130_fd_pr__nfet_01v8_lvt ad=2.9e+11p pd=2.58e+06u as=2.9e+11p ps=2.58e+06u w=1e+06u l=400000u
.ends

.subckt inv_lvt VSUBS m2_289_257# m1_170_505# M1_inv_0/a_n98_n171# M2_inv_0/w_n236_n324#
+ M2_inv_0/a_n98_n104#
XM2_inv_0 VSUBS M2_inv_0/a_n98_n104# M2_inv_0/w_n236_n324# m2_289_257# m1_170_505#
+ M2_inv
XM1_inv_0 VSUBS M1_inv_0/a_n98_n171# m1_170_505# m2_289_257# M1_inv
.ends

.subckt M1_2 VSUBS a_40_n109# a_n40_n197# a_n98_n109#
X0 a_40_n109# a_n40_n197# a_n98_n109# VSUBS sky130_fd_pr__nfet_01v8_lvt ad=2.9e+11p pd=2.58e+06u as=2.9e+11p ps=2.58e+06u w=1e+06u l=400000u
.ends

.subckt latch VSUBS Q R S vdd vss
XM2_1_0 VSUBS Q m1_1673_493# vss M2_1
Xinv_lvt_0 VSUBS m1_1673_493# R vss vdd vdd inv_lvt
Xinv_lvt_1 VSUBS m1_458_623# S vss vdd vdd inv_lvt
Xinv_lvt_2 VSUBS Q Qn vss vdd vdd inv_lvt
Xinv_lvt_3 VSUBS Qn Q vss vdd vdd inv_lvt
XM1_2_0 VSUBS vss m1_458_623# Qn M1_2
.ends

.subckt inv2 VSUBS a_67_55# a_149_55# a_59_207# a_67_305# w_0_269#
X0 a_67_305# a_59_207# a_149_55# w_0_269# sky130_fd_pr__pfet_01v8_hvt ad=5.2e+11p pd=5.04e+06u as=2.7e+11p ps=2.54e+06u w=1e+06u l=150000u
X1 a_67_55# a_59_207# a_149_55# VSUBS sky130_fd_pr__nfet_01v8 ad=3.38e+11p pd=3.64e+06u as=1.755e+11p ps=1.84e+06u w=650000u l=150000u
X2 a_149_55# a_59_207# a_67_55# VSUBS sky130_fd_pr__nfet_01v8 ad=0p pd=0u as=0p ps=0u w=650000u l=150000u
X3 a_149_55# a_59_207# a_67_305# w_0_269# sky130_fd_pr__pfet_01v8_hvt ad=0p pd=0u as=0p ps=0u w=1e+06u l=150000u
.ends

.subckt decap_8 VSUBS w_0_269# a_65_331# a_65_55#
X0 a_65_55# a_65_331# a_65_55# VSUBS sky130_fd_pr__nfet_01v8 ad=2.86e+11p pd=3.24e+06u as=0p ps=0u w=550000u l=2.89e+06u
X1 a_65_331# a_65_55# a_65_331# w_0_269# sky130_fd_pr__pfet_01v8_hvt ad=4.524e+11p pd=4.52e+06u as=0p ps=0u w=870000u l=2.89e+06u
.ends

.subckt M1_3 VSUBS a_n147_n176# a_325_n176# w_n757_n324# a_n92_55# a_n619_n176# a_380_55#
+ a_262_55# a_n265_n176# a_443_n176# a_144_55# a_498_55# a_n383_n176# a_561_n176#
+ a_n501_n176# a_n210_55# a_n564_55# a_n446_55# a_89_n176# a_n328_55# a_26_55# a_n29_n176#
+ a_207_n176#
X0 a_n265_n176# a_n328_55# a_n383_n176# w_n757_n324# sky130_fd_pr__pfet_01v8 ad=2.9e+11p pd=2.58e+06u as=2.9e+11p ps=2.58e+06u w=1e+06u l=300000u
X1 a_n147_n176# a_n210_55# a_n265_n176# w_n757_n324# sky130_fd_pr__pfet_01v8 ad=2.9e+11p pd=2.58e+06u as=0p ps=0u w=1e+06u l=300000u
X2 a_561_n176# a_498_55# a_443_n176# w_n757_n324# sky130_fd_pr__pfet_01v8 ad=2.9e+11p pd=2.58e+06u as=2.9e+11p ps=2.58e+06u w=1e+06u l=300000u
X3 a_443_n176# a_380_55# a_325_n176# w_n757_n324# sky130_fd_pr__pfet_01v8 ad=0p pd=0u as=2.9e+11p ps=2.58e+06u w=1e+06u l=300000u
X4 a_325_n176# a_262_55# a_207_n176# w_n757_n324# sky130_fd_pr__pfet_01v8 ad=0p pd=0u as=2.9e+11p ps=2.58e+06u w=1e+06u l=300000u
X5 a_207_n176# a_144_55# a_89_n176# w_n757_n324# sky130_fd_pr__pfet_01v8 ad=0p pd=0u as=2.9e+11p ps=2.58e+06u w=1e+06u l=300000u
X6 a_n29_n176# a_n92_55# a_n147_n176# w_n757_n324# sky130_fd_pr__pfet_01v8 ad=2.9e+11p pd=2.58e+06u as=0p ps=0u w=1e+06u l=300000u
X7 a_89_n176# a_26_55# a_n29_n176# w_n757_n324# sky130_fd_pr__pfet_01v8 ad=0p pd=0u as=0p ps=0u w=1e+06u l=300000u
X8 a_n501_n176# a_n564_55# a_n619_n176# w_n757_n324# sky130_fd_pr__pfet_01v8 ad=2.9e+11p pd=2.58e+06u as=2.9e+11p ps=2.58e+06u w=1e+06u l=300000u
X9 a_n383_n176# a_n446_55# a_n501_n176# w_n757_n324# sky130_fd_pr__pfet_01v8 ad=0p pd=0u as=0p ps=0u w=1e+06u l=300000u
.ends

.subckt M2_2 VSUBS a_n29_n171# a_207_n171# a_n147_n171# a_325_n171# a_n92_51# a_380_51#
+ a_n619_n171# a_262_51# a_n265_n171# a_144_51# a_443_n171# a_498_51# a_n383_n171#
+ a_561_n171# a_n210_51# a_n501_n171# a_n564_51# a_n446_51# a_n328_51# a_89_n171#
+ w_n747_n309# a_26_51#
X0 a_n501_n171# a_n564_51# a_n619_n171# VSUBS sky130_fd_pr__nfet_01v8 ad=2.9e+11p pd=2.58e+06u as=2.9e+11p ps=2.58e+06u w=1e+06u l=300000u
X1 a_n383_n171# a_n446_51# a_n501_n171# VSUBS sky130_fd_pr__nfet_01v8 ad=2.9e+11p pd=2.58e+06u as=0p ps=0u w=1e+06u l=300000u
X2 a_n265_n171# a_n328_51# a_n383_n171# VSUBS sky130_fd_pr__nfet_01v8 ad=2.9e+11p pd=2.58e+06u as=0p ps=0u w=1e+06u l=300000u
X3 a_n147_n171# a_n210_51# a_n265_n171# VSUBS sky130_fd_pr__nfet_01v8 ad=2.9e+11p pd=2.58e+06u as=0p ps=0u w=1e+06u l=300000u
X4 a_561_n171# a_498_51# a_443_n171# VSUBS sky130_fd_pr__nfet_01v8 ad=2.9e+11p pd=2.58e+06u as=2.9e+11p ps=2.58e+06u w=1e+06u l=300000u
X5 a_443_n171# a_380_51# a_325_n171# VSUBS sky130_fd_pr__nfet_01v8 ad=0p pd=0u as=2.9e+11p ps=2.58e+06u w=1e+06u l=300000u
X6 a_325_n171# a_262_51# a_207_n171# VSUBS sky130_fd_pr__nfet_01v8 ad=0p pd=0u as=2.9e+11p ps=2.58e+06u w=1e+06u l=300000u
X7 a_207_n171# a_144_51# a_89_n171# VSUBS sky130_fd_pr__nfet_01v8 ad=0p pd=0u as=2.9e+11p ps=2.58e+06u w=1e+06u l=300000u
X8 a_n29_n171# a_n92_51# a_n147_n171# VSUBS sky130_fd_pr__nfet_01v8 ad=2.9e+11p pd=2.58e+06u as=0p ps=0u w=1e+06u l=300000u
X9 a_89_n171# a_26_51# a_n29_n171# VSUBS sky130_fd_pr__nfet_01v8 ad=0p pd=0u as=0p ps=0u w=1e+06u l=300000u
.ends

.subckt inv_4 VSUBS a_157_55# a_75_305# a_75_55# a_59_207# w_0_269#
X0 a_157_55# a_59_207# a_75_55# VSUBS sky130_fd_pr__nfet_01v8 ad=3.51e+11p pd=3.68e+06u as=5.135e+11p ps=5.48e+06u w=650000u l=150000u
X1 a_157_55# a_59_207# a_75_305# w_0_269# sky130_fd_pr__pfet_01v8_hvt ad=5.4e+11p pd=5.08e+06u as=7.9e+11p ps=7.58e+06u w=1e+06u l=150000u
X2 a_157_55# a_59_207# a_75_55# VSUBS sky130_fd_pr__nfet_01v8 ad=0p pd=0u as=0p ps=0u w=650000u l=150000u
X3 a_157_55# a_59_207# a_75_305# w_0_269# sky130_fd_pr__pfet_01v8_hvt ad=0p pd=0u as=0p ps=0u w=1e+06u l=150000u
X4 a_75_305# a_59_207# a_157_55# w_0_269# sky130_fd_pr__pfet_01v8_hvt ad=0p pd=0u as=0p ps=0u w=1e+06u l=150000u
X5 a_75_55# a_59_207# a_157_55# VSUBS sky130_fd_pr__nfet_01v8 ad=0p pd=0u as=0p ps=0u w=650000u l=150000u
X6 a_75_55# a_59_207# a_157_55# VSUBS sky130_fd_pr__nfet_01v8 ad=0p pd=0u as=0p ps=0u w=650000u l=150000u
X7 a_75_305# a_59_207# a_157_55# w_0_269# sky130_fd_pr__pfet_01v8_hvt ad=0p pd=0u as=0p ps=0u w=1e+06u l=150000u
.ends

.subckt decap_3 VSUBS w_0_269# a_65_331# a_65_55#
X0 a_65_55# a_65_331# a_65_55# VSUBS sky130_fd_pr__nfet_01v8 ad=2.86e+11p pd=3.24e+06u as=0p ps=0u w=550000u l=590000u
X1 a_65_331# a_65_55# a_65_331# w_0_269# sky130_fd_pr__pfet_01v8_hvt ad=4.524e+11p pd=4.52e+06u as=0p ps=0u w=870000u l=590000u
.ends

.subckt sw_top VSUBS inv_4_1/w_0_269# in vdd en out vss m2_990_200# m2_1158_361#
Xdecap_8_0 VSUBS inv_4_1/w_0_269# vdd vss decap_8
XM1_3_0 VSUBS in in vdd m2_1158_361# in m2_1158_361# m2_1158_361# out out m2_1158_361#
+ m2_1158_361# in in out m2_1158_361# m2_1158_361# m2_1158_361# in m2_1158_361# m2_1158_361#
+ out out M1_3
XM2_2_0 VSUBS out out in in m2_990_200# m2_990_200# in m2_990_200# out m2_990_200#
+ out m2_990_200# in in m2_990_200# out m2_990_200# m2_990_200# m2_990_200# in vss
+ m2_990_200# M2_2
Xinv_4_0 VSUBS m2_990_200# vdd vss m2_1158_361# inv_4_1/w_0_269# inv_4
Xinv_4_1 VSUBS m2_1158_361# vdd vss en inv_4_1/w_0_269# inv_4
Xdecap_3_0 VSUBS inv_4_1/w_0_269# vdd vss decap_3
.ends

.subckt C7 VSUBS c1_n250_n240# m3_n450_n340#
X0 c1_n250_n240# m3_n450_n340# sky130_fd_pr__cap_mim_m3_1 l=2e+06u w=2e+06u
.ends

.subckt DUMMY VSUBS c1_n250_n240# m3_n450_n340#
X0 c1_n250_n240# m3_n450_n340# sky130_fd_pr__cap_mim_m3_1 l=2e+06u w=2e+06u
.ends

.subckt C6 VSUBS c1_n250_n240# m3_n450_n340#
X0 c1_n250_n240# m3_n450_n340# sky130_fd_pr__cap_mim_m3_1 l=2e+06u w=2e+06u
.ends

.subckt CDUM VSUBS c1_n250_n240# m3_n450_n340#
X0 c1_n250_n240# m3_n450_n340# sky130_fd_pr__cap_mim_m3_1 l=2e+06u w=2e+06u
.ends

.subckt C4 VSUBS c1_n250_n240# m3_n450_n340#
X0 c1_n250_n240# m3_n450_n340# sky130_fd_pr__cap_mim_m3_1 l=2e+06u w=2e+06u
.ends

.subckt C2 VSUBS c1_n250_n240# m3_n450_n340#
X0 c1_n250_n240# m3_n450_n340# sky130_fd_pr__cap_mim_m3_1 l=2e+06u w=2e+06u
.ends

.subckt C5 VSUBS c1_n250_n240# m3_n450_n340#
X0 c1_n250_n240# m3_n450_n340# sky130_fd_pr__cap_mim_m3_1 l=2e+06u w=2e+06u
.ends

.subckt C3 VSUBS c1_n250_n240# m3_n450_n340#
X0 c1_n250_n240# m3_n450_n340# sky130_fd_pr__cap_mim_m3_1 l=2e+06u w=2e+06u
.ends

.subckt C1 VSUBS c1_n250_n240# m3_n450_n340#
X0 c1_n250_n240# m3_n450_n340# sky130_fd_pr__cap_mim_m3_1 l=2e+06u w=2e+06u
.ends

.subckt C0_1 VSUBS c1_n250_n240# m3_n450_n340#
X0 c1_n250_n240# m3_n450_n340# sky130_fd_pr__cap_mim_m3_1 l=2e+06u w=2e+06u
.ends

.subckt carray VSUBS n0 n1 n2 n3 n4 n5 n6 n7 ndum top
XC7_121 VSUBS top n7 C7
XC7_110 VSUBS top n7 C7
XDUMMY_80 VSUBS top via23_4_721/m2_1_40# DUMMY
XC6_53 VSUBS top n6 C6
XC6_42 VSUBS top n6 C6
XC6_31 VSUBS top n6 C6
XC6_20 VSUBS top n6 C6
XC7_122 VSUBS top n7 C7
XC7_111 VSUBS top n7 C7
XC7_100 VSUBS top n7 C7
XDUMMY_81 VSUBS top via23_4_718/m2_1_40# DUMMY
XDUMMY_70 VSUBS top via23_4_651/m2_1_40# DUMMY
XC6_10 VSUBS top n6 C6
XC6_21 VSUBS top n6 C6
XC6_54 VSUBS top n6 C6
XC6_43 VSUBS top n6 C6
XC6_32 VSUBS top n6 C6
XC6_0 VSUBS top n6 C6
XC7_123 VSUBS top n7 C7
XC7_112 VSUBS top n7 C7
XC7_101 VSUBS top n7 C7
XDUMMY_82 VSUBS top via23_4_441/m2_1_40# DUMMY
XDUMMY_71 VSUBS top via23_4_650/m2_1_40# DUMMY
XDUMMY_60 VSUBS top via23_4_451/m2_1_40# DUMMY
XC6_55 VSUBS top n6 C6
XC6_44 VSUBS top n6 C6
XC6_33 VSUBS top n6 C6
XC6_11 VSUBS top n6 C6
XC6_22 VSUBS top n6 C6
XC6_1 VSUBS top n6 C6
XC7_124 VSUBS top n7 C7
XC7_113 VSUBS top n7 C7
XC7_102 VSUBS top n7 C7
XDUMMY_83 VSUBS top via23_4_684/m2_1_40# DUMMY
XDUMMY_72 VSUBS top via23_4_685/m2_1_40# DUMMY
XDUMMY_61 VSUBS top via23_4_597/m2_1_40# DUMMY
XDUMMY_50 VSUBS top via23_4_431/m2_1_40# DUMMY
XC6_56 VSUBS top n6 C6
XC6_45 VSUBS top n6 C6
XC6_34 VSUBS top n6 C6
XC6_23 VSUBS top n6 C6
XC6_12 VSUBS top n6 C6
XC6_2 VSUBS top n6 C6
XCDUM_0 VSUBS top ndum CDUM
XC7_125 VSUBS top n7 C7
XC7_114 VSUBS top n7 C7
XC7_103 VSUBS top n7 C7
XDUMMY_73 VSUBS top via23_4_686/m2_1_40# DUMMY
XDUMMY_62 VSUBS top via23_4_598/m2_1_40# DUMMY
XDUMMY_51 VSUBS top via23_4_416/m2_1_40# DUMMY
XDUMMY_40 VSUBS top via23_4_328/m2_1_40# DUMMY
XC6_57 VSUBS top n6 C6
XC6_46 VSUBS top n6 C6
XC6_35 VSUBS top n6 C6
XC6_24 VSUBS top n6 C6
XC6_13 VSUBS top n6 C6
XDUMMY_0 VSUBS top via23_4_3/m2_1_40# DUMMY
XC6_3 VSUBS top n6 C6
XC4_0 VSUBS top n4 C4
XC7_104 VSUBS top n7 C7
XC7_126 VSUBS top n7 C7
XC7_115 VSUBS top n7 C7
XDUMMY_74 VSUBS top via23_4_687/m2_1_40# DUMMY
XDUMMY_63 VSUBS top via23_4_599/m2_1_40# DUMMY
XDUMMY_52 VSUBS top via23_4_383/m2_1_40# DUMMY
XDUMMY_41 VSUBS top via23_4_90/m2_1_40# DUMMY
XDUMMY_30 VSUBS top via23_4_252/m2_1_40# DUMMY
XC6_58 VSUBS top n6 C6
XC6_47 VSUBS top n6 C6
XC6_36 VSUBS top n6 C6
XC6_25 VSUBS top n6 C6
XC6_14 VSUBS top n6 C6
XDUMMY_1 VSUBS top via23_4_9/m2_1_40# DUMMY
XC7_90 VSUBS top n7 C7
XC6_4 VSUBS top n6 C6
XC4_1 VSUBS top n4 C4
XC7_127 VSUBS top n7 C7
XC7_116 VSUBS top n7 C7
XC7_105 VSUBS top n7 C7
XDUMMY_20 VSUBS top via23_4_200/m2_1_40# DUMMY
XDUMMY_75 VSUBS top via23_4_713/m2_1_40# DUMMY
XDUMMY_64 VSUBS top via23_4_593/m2_1_40# DUMMY
XDUMMY_53 VSUBS top via23_4_452/m2_1_40# DUMMY
XDUMMY_42 VSUBS top via23_4_368/m2_1_40# DUMMY
XDUMMY_31 VSUBS top via23_4_246/m2_1_40# DUMMY
XC6_26 VSUBS top n6 C6
XC6_15 VSUBS top n6 C6
XC6_59 VSUBS top n6 C6
XC6_48 VSUBS top n6 C6
XC6_37 VSUBS top n6 C6
XDUMMY_2 VSUBS top via23_4_1/m2_1_40# DUMMY
XC7_91 VSUBS top n7 C7
XC7_80 VSUBS top n7 C7
XC6_5 VSUBS top n6 C6
XC4_2 VSUBS top n4 C4
XC7_117 VSUBS top n7 C7
XC7_106 VSUBS top n7 C7
XDUMMY_76 VSUBS top via23_4_711/m2_1_40# DUMMY
XDUMMY_65 VSUBS top via23_4_609/m2_1_40# DUMMY
XDUMMY_54 VSUBS top via23_4_449/m2_1_40# DUMMY
XDUMMY_43 VSUBS top via23_4_369/m2_1_40# DUMMY
XDUMMY_32 VSUBS top via23_4_333/m2_1_40# DUMMY
XDUMMY_10 VSUBS top via23_4_91/m2_1_40# DUMMY
XDUMMY_21 VSUBS top via23_4_199/m2_1_40# DUMMY
XC6_49 VSUBS top n6 C6
XC6_38 VSUBS top n6 C6
XC6_27 VSUBS top n6 C6
XC6_16 VSUBS top n6 C6
XDUMMY_3 VSUBS top via23_4_2/m2_1_40# DUMMY
XC7_92 VSUBS top n7 C7
XC7_81 VSUBS top n7 C7
XC7_70 VSUBS top n7 C7
XC6_6 VSUBS top n6 C6
XC4_3 VSUBS top n4 C4
XC7_118 VSUBS top n7 C7
XC7_107 VSUBS top n7 C7
XC2_0 VSUBS top n2 C2
XDUMMY_77 VSUBS top via23_4_714/m2_1_40# DUMMY
XDUMMY_66 VSUBS top via23_4_610/m2_1_40# DUMMY
XDUMMY_55 VSUBS top via23_4_450/m2_1_40# DUMMY
XDUMMY_44 VSUBS top via23_4_370/m2_1_40# DUMMY
XDUMMY_33 VSUBS top via23_4_334/m2_1_40# DUMMY
XDUMMY_11 VSUBS top via23_4_97/m2_1_40# DUMMY
XDUMMY_22 VSUBS top via23_4_221/m2_1_40# DUMMY
XC6_39 VSUBS top n6 C6
XC6_28 VSUBS top n6 C6
XC6_17 VSUBS top n6 C6
XDUMMY_4 VSUBS top via23_4_20/m2_1_40# DUMMY
XC7_93 VSUBS top n7 C7
XC7_82 VSUBS top n7 C7
XC7_71 VSUBS top n7 C7
XC7_60 VSUBS top n7 C7
XC6_7 VSUBS top n6 C6
XC4_4 VSUBS top n4 C4
XC7_119 VSUBS top n7 C7
XC7_108 VSUBS top n7 C7
XC2_1 VSUBS top n2 C2
XDUMMY_78 VSUBS top via23_4_719/m2_1_40# DUMMY
XDUMMY_67 VSUBS top via23_4_608/m2_1_40# DUMMY
XDUMMY_56 VSUBS top via23_4_461/m2_1_40# DUMMY
XDUMMY_45 VSUBS top via23_4_371/m2_1_40# DUMMY
XDUMMY_34 VSUBS top via23_4_335/m2_1_40# DUMMY
XDUMMY_12 VSUBS top via23_4_104/m2_1_40# DUMMY
XDUMMY_23 VSUBS top via23_4_214/m2_1_40# DUMMY
XC6_29 VSUBS top n6 C6
XC6_18 VSUBS top n6 C6
XDUMMY_5 VSUBS top via23_4_21/m2_1_40# DUMMY
XC7_94 VSUBS top n7 C7
XC7_83 VSUBS top n7 C7
XC7_72 VSUBS top n7 C7
XC7_61 VSUBS top n7 C7
XC7_50 VSUBS top n7 C7
XC6_8 VSUBS top n6 C6
XC4_5 VSUBS top n4 C4
XC7_109 VSUBS top n7 C7
XC2_2 VSUBS top n2 C2
XDUMMY_79 VSUBS top via23_4_720/m2_1_40# DUMMY
XDUMMY_68 VSUBS top via23_4_607/m2_1_40# DUMMY
XDUMMY_57 VSUBS top via23_4_458/m2_1_40# DUMMY
XDUMMY_46 VSUBS top via23_4_380/m2_1_40# DUMMY
XDUMMY_35 VSUBS top via23_4_349/m2_1_40# DUMMY
XDUMMY_13 VSUBS top via23_4_92/m2_1_40# DUMMY
XDUMMY_24 VSUBS top via23_4_230/m2_1_40# DUMMY
XC6_19 VSUBS top n6 C6
XDUMMY_6 VSUBS top via23_4_22/m2_1_40# DUMMY
XC7_95 VSUBS top n7 C7
XC7_84 VSUBS top n7 C7
XC7_73 VSUBS top n7 C7
XC7_62 VSUBS top n7 C7
XC7_51 VSUBS top n7 C7
XC7_40 VSUBS top n7 C7
XC6_9 VSUBS top n6 C6
XC4_6 VSUBS top n4 C4
XC2_3 VSUBS top n2 C2
XDUMMY_36 VSUBS top via23_4_356/m2_1_40# DUMMY
XDUMMY_14 VSUBS top via23_4_95/m2_1_40# DUMMY
XDUMMY_25 VSUBS top via23_4_229/m2_1_40# DUMMY
XDUMMY_69 VSUBS top via23_4_644/m2_1_40# DUMMY
XDUMMY_58 VSUBS top via23_4_462/m2_1_40# DUMMY
XDUMMY_47 VSUBS top via23_4_381/m2_1_40# DUMMY
XDUMMY_7 VSUBS top via23_4_23/m2_1_40# DUMMY
XC7_96 VSUBS top n7 C7
XC7_85 VSUBS top n7 C7
XC7_74 VSUBS top n7 C7
XC7_63 VSUBS top n7 C7
XC7_52 VSUBS top n7 C7
XC7_30 VSUBS top n7 C7
XC7_41 VSUBS top n7 C7
XC4_7 VSUBS top n4 C4
XDUMMY_59 VSUBS top via23_4_463/m2_1_40# DUMMY
XDUMMY_48 VSUBS top via23_4_382/m2_1_40# DUMMY
XDUMMY_37 VSUBS top via23_4_347/m2_1_40# DUMMY
XDUMMY_15 VSUBS top via23_4_118/m2_1_40# DUMMY
XDUMMY_26 VSUBS top via23_4_231/m2_1_40# DUMMY
XDUMMY_8 VSUBS top via23_4_88/m2_1_40# DUMMY
XC7_97 VSUBS top n7 C7
XC7_86 VSUBS top n7 C7
XC7_75 VSUBS top n7 C7
XC7_64 VSUBS top n7 C7
XC7_53 VSUBS top n7 C7
XC7_20 VSUBS top n7 C7
XC7_31 VSUBS top n7 C7
XC7_42 VSUBS top n7 C7
XC4_10 VSUBS top n4 C4
XC4_8 VSUBS top n4 C4
XDUMMY_49 VSUBS top via23_4_421/m2_1_40# DUMMY
XDUMMY_38 VSUBS top via23_4_348/m2_1_40# DUMMY
XDUMMY_16 VSUBS top via23_4_112/m2_1_40# DUMMY
XDUMMY_27 VSUBS top via23_4_219/m2_1_40# DUMMY
XDUMMY_9 VSUBS top via23_4_89/m2_1_40# DUMMY
XC7_98 VSUBS top n7 C7
XC7_87 VSUBS top n7 C7
XC7_76 VSUBS top n7 C7
XC7_65 VSUBS top n7 C7
XC7_54 VSUBS top n7 C7
XC7_10 VSUBS top n7 C7
XC7_21 VSUBS top n7 C7
XC7_32 VSUBS top n7 C7
XC7_43 VSUBS top n7 C7
XC4_11 VSUBS top n4 C4
XC4_9 VSUBS top n4 C4
XDUMMY_39 VSUBS top via23_4_336/m2_1_40# DUMMY
XDUMMY_17 VSUBS top via23_4_129/m2_1_40# DUMMY
XDUMMY_28 VSUBS top via23_4_250/m2_1_40# DUMMY
XC7_99 VSUBS top n7 C7
XC7_88 VSUBS top n7 C7
XC7_77 VSUBS top n7 C7
XC7_66 VSUBS top n7 C7
XC7_55 VSUBS top n7 C7
XC7_11 VSUBS top n7 C7
XC7_22 VSUBS top n7 C7
XC7_33 VSUBS top n7 C7
XC7_44 VSUBS top n7 C7
XC4_12 VSUBS top n4 C4
XDUMMY_18 VSUBS top via23_4_96/m2_1_40# DUMMY
XDUMMY_29 VSUBS top via23_4_251/m2_1_40# DUMMY
XC7_89 VSUBS top n7 C7
XC7_78 VSUBS top n7 C7
XC7_67 VSUBS top n7 C7
XC7_56 VSUBS top n7 C7
XC7_12 VSUBS top n7 C7
XC7_23 VSUBS top n7 C7
XC7_34 VSUBS top n7 C7
XC7_45 VSUBS top n7 C7
XC4_13 VSUBS top n4 C4
XDUMMY_19 VSUBS top via23_4_201/m2_1_40# DUMMY
XC7_79 VSUBS top n7 C7
XC7_68 VSUBS top n7 C7
XC7_57 VSUBS top n7 C7
XC7_13 VSUBS top n7 C7
XC7_24 VSUBS top n7 C7
XC7_35 VSUBS top n7 C7
XC7_46 VSUBS top n7 C7
XC4_14 VSUBS top n4 C4
XC7_69 VSUBS top n7 C7
XC7_58 VSUBS top n7 C7
XC7_14 VSUBS top n7 C7
XC7_25 VSUBS top n7 C7
XC7_36 VSUBS top n7 C7
XC7_47 VSUBS top n7 C7
XC4_15 VSUBS top n4 C4
XC7_0 VSUBS top n7 C7
XC7_59 VSUBS top n7 C7
XC7_15 VSUBS top n7 C7
XC7_26 VSUBS top n7 C7
XC7_37 VSUBS top n7 C7
XC7_48 VSUBS top n7 C7
XC7_1 VSUBS top n7 C7
XC7_49 VSUBS top n7 C7
XC7_16 VSUBS top n7 C7
XC7_27 VSUBS top n7 C7
XC7_38 VSUBS top n7 C7
XC7_2 VSUBS top n7 C7
XC7_17 VSUBS top n7 C7
XC7_28 VSUBS top n7 C7
XC7_39 VSUBS top n7 C7
XC7_3 VSUBS top n7 C7
XC5_0 VSUBS top n5 C5
XC7_18 VSUBS top n7 C7
XC7_29 VSUBS top n7 C7
XC7_4 VSUBS top n7 C7
XC5_1 VSUBS top n5 C5
XC7_19 VSUBS top n7 C7
XC5_30 VSUBS top n5 C5
XC7_5 VSUBS top n7 C7
XC5_2 VSUBS top n5 C5
XC5_31 VSUBS top n5 C5
XC5_20 VSUBS top n5 C5
XC7_6 VSUBS top n7 C7
XC5_3 VSUBS top n5 C5
XC3_0 VSUBS top n3 C3
XC5_21 VSUBS top n5 C5
XC5_10 VSUBS top n5 C5
XC7_7 VSUBS top n7 C7
XC5_4 VSUBS top n5 C5
XC3_1 VSUBS top n3 C3
XC5_22 VSUBS top n5 C5
XC5_11 VSUBS top n5 C5
XC7_8 VSUBS top n7 C7
XC5_5 VSUBS top n5 C5
XC3_2 VSUBS top n3 C3
XC5_23 VSUBS top n5 C5
XC5_12 VSUBS top n5 C5
XC7_9 VSUBS top n7 C7
XC5_6 VSUBS top n5 C5
XC3_3 VSUBS top n3 C3
XC1_0 VSUBS top n1 C1
XC5_24 VSUBS top n5 C5
XC5_13 VSUBS top n5 C5
XC5_7 VSUBS top n5 C5
XC3_4 VSUBS top n3 C3
XC1_1 VSUBS top n1 C1
XC5_25 VSUBS top n5 C5
XC5_14 VSUBS top n5 C5
XC5_8 VSUBS top n5 C5
XC3_5 VSUBS top n3 C3
XC5_26 VSUBS top n5 C5
XC5_15 VSUBS top n5 C5
XC5_9 VSUBS top n5 C5
XC3_6 VSUBS top n3 C3
XC5_27 VSUBS top n5 C5
XC5_16 VSUBS top n5 C5
XC3_7 VSUBS top n3 C3
XC0_1_0 VSUBS top n0 C0_1
XC5_28 VSUBS top n5 C5
XC5_17 VSUBS top n5 C5
XC6_60 VSUBS top n6 C6
XC5_29 VSUBS top n5 C5
XC5_18 VSUBS top n5 C5
XC6_61 VSUBS top n6 C6
XC6_50 VSUBS top n6 C6
XC5_19 VSUBS top n5 C5
XC6_62 VSUBS top n6 C6
XC6_51 VSUBS top n6 C6
XC6_40 VSUBS top n6 C6
XC7_120 VSUBS top n7 C7
XC6_63 VSUBS top n6 C6
XC6_52 VSUBS top n6 C6
XC6_41 VSUBS top n6 C6
XC6_30 VSUBS top n6 C6
.ends

.subckt DAC VSUBS ctl7 vdd dum out sample vss ctl0 ctl1 ctl2 ctl3 vin ctl4 ctl5 tap_2/w_0_309#
+ ctl6
Xinv2_0 VSUBS vss carray_0/n7 ctl7 vdd inv2_8/w_0_269# inv2
Xinv2_1 VSUBS vss carray_0/n6 ctl6 vdd inv2_8/w_0_269# inv2
Xinv2_2 VSUBS vss carray_0/ndum dum vdd inv2_8/w_0_269# inv2
Xinv2_3 VSUBS vss carray_0/n0 ctl0 vdd inv2_8/w_0_269# inv2
Xinv2_4 VSUBS vss carray_0/n1 ctl1 vdd inv2_8/w_0_269# inv2
Xinv2_5 VSUBS vss carray_0/n5 ctl5 vdd inv2_8/w_0_269# inv2
Xinv2_6 VSUBS vss carray_0/n4 ctl4 vdd inv2_8/w_0_269# inv2
Xinv2_7 VSUBS vss carray_0/n2 ctl2 vdd inv2_8/w_0_269# inv2
Xinv2_8 VSUBS vss carray_0/n3 ctl3 vdd inv2_8/w_0_269# inv2
Xsw_top_0 VSUBS tap_2/w_0_309# vin vdd sample out vss sw_top_0/m2_990_200# sw_top_0/m2_1158_361#
+ sw_top
Xcarray_0 VSUBS carray_0/n0 carray_0/n1 carray_0/n2 carray_0/n3 carray_0/n4 carray_0/n5
+ carray_0/n6 carray_0/n7 carray_0/ndum out carray
Xsw_top_1 VSUBS tap_2/w_0_309# vin vdd sample out vss en_buf enb sw_top
Xsw_top_2 VSUBS tap_2/w_0_309# vin vdd sample out vss en_buf enb sw_top
Xsw_top_3 VSUBS tap_2/w_0_309# vin vdd sample out vss sw_top_3/m2_990_200# sw_top_3/m2_1158_361#
+ sw_top
.ends

.subckt decap_3$1 VSUBS w_0_269# a_65_331# a_65_55#
X0 a_65_55# a_65_331# a_65_55# VSUBS sky130_fd_pr__nfet_01v8 ad=2.86e+11p pd=3.24e+06u as=0p ps=0u w=550000u l=590000u
X1 a_65_331# a_65_55# a_65_331# w_0_269# sky130_fd_pr__pfet_01v8_hvt ad=4.524e+11p pd=4.52e+06u as=0p ps=0u w=870000u l=590000u
.ends

.subckt M1_1 VSUBS a_n33_n197# a_n88_n109# w_n114_n135# a_30_n109#
X0 a_30_n109# a_n33_n197# a_n88_n109# VSUBS sky130_fd_pr__nfet_01v8_lvt ad=2.9e+11p pd=2.58e+06u as=2.9e+11p ps=2.58e+06u w=1e+06u l=300000u
.ends

.subckt trim_sw VSUBS d_0 d_1 d_2 d_3 d_4 m1_1226_409# m1_799_409# m1_136_409# m1_1771_409#
+ vss m1_1462_409#
XM1_1_14 VSUBS d_2 m1_799_409# M1_1_15/w_n114_n135# vss M1_1
XM1_1_15 VSUBS d_2 vss M1_1_15/w_n114_n135# m1_799_409# M1_1
XM1_1_0 VSUBS d_0 m1_1226_409# M1_1_9/w_n114_n135# vss M1_1
XM1_1_1 VSUBS d_4 m1_1771_409# M1_1_8/w_n114_n135# vss M1_1
XM1_1_2 VSUBS d_4 vss M1_1_8/w_n114_n135# m1_1771_409# M1_1
XM1_1_3 VSUBS d_4 m1_1771_409# M1_1_8/w_n114_n135# vss M1_1
XM1_1_4 VSUBS d_4 vss M1_1_8/w_n114_n135# m1_1771_409# M1_1
XM1_1_5 VSUBS d_4 vss M1_1_8/w_n114_n135# m1_1771_409# M1_1
XM1_1_6 VSUBS d_4 m1_1771_409# M1_1_8/w_n114_n135# vss M1_1
XM1_1_7 VSUBS d_4 m1_1771_409# M1_1_8/w_n114_n135# vss M1_1
XM1_1_9 VSUBS d_1 vss M1_1_9/w_n114_n135# m1_1462_409# M1_1
XM1_1_8 VSUBS d_4 vss M1_1_8/w_n114_n135# m1_1771_409# M1_1
XM1_1_10 VSUBS d_3 vss M1_1_13/w_n114_n135# m1_136_409# M1_1
XM1_1_11 VSUBS d_3 m1_136_409# M1_1_13/w_n114_n135# vss M1_1
XM1_1_12 VSUBS d_3 vss M1_1_13/w_n114_n135# m1_136_409# M1_1
XM1_1_13 VSUBS d_3 m1_136_409# M1_1_13/w_n114_n135# vss M1_1
.ends

.subckt trim drain VSUBS trim_sw_0/d_0 trim_sw_0/d_1 trim_sw_0/d_2 trim_sw_0/d_3 trim_sw_0/d_4
+ trim_sw_0/vss
Xtrim_sw_0 VSUBS trim_sw_0/d_0 trim_sw_0/d_1 trim_sw_0/d_2 trim_sw_0/d_3 trim_sw_0/d_4
+ n0 n2 n3 n4 trim_sw_0/vss n1 trim_sw
.ends

.subckt Mdiff VSUBS a_n88_n171# a_30_n171# w_n114_n197# a_n33_51#
X0 a_30_n171# a_n33_51# a_n88_n171# VSUBS sky130_fd_pr__nfet_01v8 ad=2.9e+11p pd=2.58e+06u as=2.9e+11p ps=2.58e+06u w=1e+06u l=300000u
.ends

.subckt M3 VSUBS a_30_n176# w_n124_n238# a_n33_55# a_n88_n176#
X0 a_30_n176# a_n33_55# a_n88_n176# w_n124_n238# sky130_fd_pr__pfet_01v8 ad=2.9e+11p pd=2.58e+06u as=2.9e+11p ps=2.58e+06u w=1e+06u l=300000u
.ends

.subckt Ml1 VSUBS a_n88_n171# a_30_n171# w_n114_n197# a_n33_51#
X0 a_30_n171# a_n33_51# a_n88_n171# VSUBS sky130_fd_pr__nfet_01v8 ad=2.9e+11p pd=2.58e+06u as=2.9e+11p ps=2.58e+06u w=1e+06u l=300000u
.ends

.subckt Minp VSUBS a_n88_n171# a_30_n171# w_n114_n197# a_n33_51#
X0 a_30_n171# a_n33_51# a_n88_n171# VSUBS sky130_fd_pr__nfet_01v8 ad=2.9e+11p pd=2.58e+06u as=2.9e+11p ps=2.58e+06u w=1e+06u l=300000u
.ends

.subckt M1 VSUBS a_30_n176# w_n124_n238# a_n33_55# a_n88_n176#
X0 a_30_n176# a_n33_55# a_n88_n176# w_n124_n238# sky130_fd_pr__pfet_01v8 ad=2.9e+11p pd=2.58e+06u as=2.9e+11p ps=2.58e+06u w=1e+06u l=300000u
.ends

.subckt Minn VSUBS a_n88_n171# a_30_n171# w_n114_n197# a_n33_51#
X0 a_30_n171# a_n33_51# a_n88_n171# VSUBS sky130_fd_pr__nfet_01v8 ad=2.9e+11p pd=2.58e+06u as=2.9e+11p ps=2.58e+06u w=1e+06u l=300000u
.ends

.subckt Ml4 VSUBS a_30_n176# w_n124_n238# a_n33_55# a_n88_n176#
X0 a_30_n176# a_n33_55# a_n88_n176# w_n124_n238# sky130_fd_pr__pfet_01v8 ad=2.9e+11p pd=2.58e+06u as=2.9e+11p ps=2.58e+06u w=1e+06u l=300000u
.ends

.subckt M4 VSUBS a_30_n176# w_n124_n238# a_n33_55# a_n88_n176#
X0 a_30_n176# a_n33_55# a_n88_n176# w_n124_n238# sky130_fd_pr__pfet_01v8 ad=2.9e+11p pd=2.58e+06u as=2.9e+11p ps=2.58e+06u w=1e+06u l=300000u
.ends

.subckt Ml2 VSUBS a_n88_n171# a_30_n171# w_n114_n197# a_n33_51#
X0 a_30_n171# a_n33_51# a_n88_n171# VSUBS sky130_fd_pr__nfet_01v8 ad=2.9e+11p pd=2.58e+06u as=2.9e+11p ps=2.58e+06u w=1e+06u l=300000u
.ends

.subckt M2 VSUBS a_30_n176# w_n124_n238# a_n33_55# a_n88_n176#
X0 a_30_n176# a_n33_55# a_n88_n176# w_n124_n238# sky130_fd_pr__pfet_01v8 ad=2.9e+11p pd=2.58e+06u as=2.9e+11p ps=2.58e+06u w=1e+06u l=300000u
.ends

.subckt Ml3 VSUBS a_30_n176# w_n124_n238# a_n33_55# a_n88_n176#
X0 a_30_n176# a_n33_55# a_n88_n176# w_n124_n238# sky130_fd_pr__pfet_01v8 ad=2.9e+11p pd=2.58e+06u as=2.9e+11p ps=2.58e+06u w=1e+06u l=300000u
.ends

.subckt comparator_core VSUBS clk in ip vdd vss vn vp outn outp
XMdiff_0 VSUBS diff vss Mdiff_1/w_n114_n197# clk Mdiff
XMdiff_1 VSUBS vss diff Mdiff_1/w_n114_n197# clk Mdiff
XM3_0 VSUBS vdd w_302_2337# clk outp M3
XMl1_0 VSUBS in outn Ml2_0/w_n114_n197# outp Ml1
XMinp_0 VSUBS diff ip Ml2_0/w_n114_n197# vp Minp
XM1_0 VSUBS vdd w_302_2337# clk in M1
XMinn_0 VSUBS in diff Ml2_0/w_n114_n197# vn Minn
XMl4_0 VSUBS outp w_302_2337# outn vdd Ml4
XM4_0 VSUBS ip w_302_2337# clk vdd M4
XMl2_0 VSUBS outp ip Ml2_0/w_n114_n197# outn Ml2
XM2_0 VSUBS outn w_302_2337# clk vdd M2
XMl3_0 VSUBS vdd w_302_2337# outp outn Ml3
.ends

.subckt comparator VSUBS clk vss vn vp trim_0 trim_1 trim_2 trim_3 trim_4 vdd trimb_0
+ outn trimb_1 trimb_2 outp trimb_3 trimb_4
Xtrim_0 trim_0/drain VSUBS trim_0 trim_1 trim_2 trim_3 trim_4 vss trim
Xtrim_1 trim_1/drain VSUBS trimb_0 trimb_1 trimb_2 trimb_3 trimb_4 vss trim
Xcomparator_core_0 VSUBS clk trim_0/drain trim_1/drain vdd vss vn vp outn outp comparator_core
.ends

.subckt sky130_fd_sc_hd__decap_8 VGND VPWR VPB VNB
X0 VGND VPWR VGND VNB sky130_fd_pr__nfet_01v8 ad=2.86e+11p pd=3.24e+06u as=0p ps=0u w=550000u l=2.89e+06u
X1 VPWR VGND VPWR VPB sky130_fd_pr__pfet_01v8_hvt ad=4.524e+11p pd=4.52e+06u as=0p ps=0u w=870000u l=2.89e+06u
.ends

.subckt sky130_fd_sc_hd__decap_4 VGND VPWR VPB VNB
X0 VGND VPWR VGND VNB sky130_fd_pr__nfet_01v8 ad=2.86e+11p pd=3.24e+06u as=0p ps=0u w=550000u l=1.05e+06u
X1 VPWR VGND VPWR VPB sky130_fd_pr__pfet_01v8_hvt ad=4.524e+11p pd=4.52e+06u as=0p ps=0u w=870000u l=1.05e+06u
.ends

.subckt sky130_fd_sc_hd__inv_2 VGND Y VPWR A VPB VNB
X0 VGND A Y VNB sky130_fd_pr__nfet_01v8 ad=3.38e+11p pd=3.64e+06u as=1.755e+11p ps=1.84e+06u w=650000u l=150000u
X1 VPWR A Y VPB sky130_fd_pr__pfet_01v8_hvt ad=5.2e+11p pd=5.04e+06u as=2.7e+11p ps=2.54e+06u w=1e+06u l=150000u
X2 Y A VPWR VPB sky130_fd_pr__pfet_01v8_hvt ad=0p pd=0u as=0p ps=0u w=1e+06u l=150000u
X3 Y A VGND VNB sky130_fd_pr__nfet_01v8 ad=0p pd=0u as=0p ps=0u w=650000u l=150000u
.ends

.subckt sky130_fd_sc_hd__dfstp_1 Q VGND SET_B CLK VPWR VPB VNB D
X0 a_562_373# a_27_7# a_476_7# VPB sky130_fd_pr__pfet_01v8_hvt ad=1.89e+11p pd=1.74e+06u as=1.134e+11p ps=1.38e+06u w=420000u l=150000u
X1 VPWR CLK a_27_7# VPB sky130_fd_pr__pfet_01v8_hvt ad=1.3171e+12p pd=1.335e+07u as=1.664e+11p ps=1.8e+06u w=640000u l=150000u
X2 a_193_7# a_27_7# VPWR VPB sky130_fd_pr__pfet_01v8_hvt ad=1.664e+11p pd=1.8e+06u as=0p ps=0u w=640000u l=150000u
X3 a_1056_7# a_476_7# VGND VNB sky130_fd_pr__nfet_01v8 ad=8.82e+10p pd=1.26e+06u as=9.868e+11p ps=1.019e+07u w=420000u l=150000u
X4 VGND SET_B a_1296_7# VNB sky130_fd_pr__nfet_01v8 ad=0p pd=0u as=9.66e+10p ps=1.3e+06u w=420000u l=150000u
X5 a_381_7# D VGND VNB sky130_fd_pr__nfet_01v8 ad=1.87e+11p pd=1.93e+06u as=0p ps=0u w=640000u l=150000u
X6 a_1182_221# a_1032_373# VGND VNB sky130_fd_pr__nfet_01v8 ad=1.404e+11p pd=1.6e+06u as=0p ps=0u w=540000u l=150000u
X7 Q a_1602_7# VPWR VPB sky130_fd_pr__pfet_01v8_hvt ad=2.6e+11p pd=2.52e+06u as=0p ps=0u w=1e+06u l=150000u
X8 a_652_n19# SET_B VPWR VPB sky130_fd_pr__pfet_01v8_hvt ad=1.134e+11p pd=1.38e+06u as=0p ps=0u w=420000u l=150000u
X9 a_586_7# a_193_7# a_476_7# VNB sky130_fd_pr__nfet_01v8 ad=1.341e+11p pd=1.5e+06u as=1.44e+11p ps=1.52e+06u w=360000u l=150000u
X10 VGND a_652_n19# a_586_7# VNB sky130_fd_pr__nfet_01v8 ad=0p pd=0u as=0p ps=0u w=420000u l=150000u
X11 Q a_1602_7# VGND VNB sky130_fd_pr__nfet_01v8 ad=1.69e+11p pd=1.82e+06u as=0p ps=0u w=650000u l=150000u
X12 a_956_373# a_476_7# VPWR VPB sky130_fd_pr__pfet_01v8_hvt ad=9.66e+10p pd=1.3e+06u as=0p ps=0u w=420000u l=150000u
X13 a_381_7# D VPWR VPB sky130_fd_pr__pfet_01v8_hvt ad=2.499e+11p pd=2.35e+06u as=0p ps=0u w=840000u l=150000u
X14 VPWR a_1032_373# a_1602_7# VPB sky130_fd_pr__pfet_01v8_hvt ad=0p pd=0u as=1.664e+11p ps=1.8e+06u w=640000u l=150000u
X15 a_1140_373# a_193_7# a_1032_373# VPB sky130_fd_pr__pfet_01v8_hvt ad=8.82e+10p pd=1.26e+06u as=2.73e+11p ps=2.98e+06u w=420000u l=150000u
X16 a_1032_373# a_193_7# a_1056_7# VNB sky130_fd_pr__nfet_01v8 ad=1.386e+11p pd=1.5e+06u as=0p ps=0u w=420000u l=150000u
X17 a_1224_7# a_27_7# a_1032_373# VNB sky130_fd_pr__nfet_01v8 ad=8.82e+10p pd=1.26e+06u as=0p ps=0u w=420000u l=150000u
X18 VPWR a_476_7# a_652_n19# VPB sky130_fd_pr__pfet_01v8_hvt ad=0p pd=0u as=0p ps=0u w=420000u l=150000u
X19 a_1032_373# a_27_7# a_956_373# VPB sky130_fd_pr__pfet_01v8_hvt ad=0p pd=0u as=0p ps=0u w=420000u l=150000u
X20 VPWR SET_B a_1032_373# VPB sky130_fd_pr__pfet_01v8_hvt ad=0p pd=0u as=0p ps=0u w=420000u l=150000u
X21 a_1296_7# a_1182_221# a_1224_7# VNB sky130_fd_pr__nfet_01v8 ad=0p pd=0u as=0p ps=0u w=420000u l=150000u
X22 a_1182_221# a_1032_373# VPWR VPB sky130_fd_pr__pfet_01v8_hvt ad=2.184e+11p pd=2.2e+06u as=0p ps=0u w=840000u l=150000u
X23 a_796_7# SET_B VGND VNB sky130_fd_pr__nfet_01v8 ad=8.82e+10p pd=1.26e+06u as=0p ps=0u w=420000u l=150000u
X24 a_193_7# a_27_7# VGND VNB sky130_fd_pr__nfet_01v8 ad=1.092e+11p pd=1.36e+06u as=0p ps=0u w=420000u l=150000u
X25 VGND a_1032_373# a_1602_7# VNB sky130_fd_pr__nfet_01v8 ad=0p pd=0u as=1.092e+11p ps=1.36e+06u w=420000u l=150000u
X26 a_652_n19# a_476_7# a_796_7# VNB sky130_fd_pr__nfet_01v8 ad=1.092e+11p pd=1.36e+06u as=0p ps=0u w=420000u l=150000u
X27 VPWR a_652_n19# a_562_373# VPB sky130_fd_pr__pfet_01v8_hvt ad=0p pd=0u as=0p ps=0u w=420000u l=150000u
X28 VGND CLK a_27_7# VNB sky130_fd_pr__nfet_01v8 ad=0p pd=0u as=1.092e+11p ps=1.36e+06u w=420000u l=150000u
X29 a_476_7# a_27_7# a_381_7# VNB sky130_fd_pr__nfet_01v8 ad=0p pd=0u as=0p ps=0u w=360000u l=150000u
X30 a_476_7# a_193_7# a_381_7# VPB sky130_fd_pr__pfet_01v8_hvt ad=0p pd=0u as=0p ps=0u w=420000u l=150000u
X31 VPWR a_1182_221# a_1140_373# VPB sky130_fd_pr__pfet_01v8_hvt ad=0p pd=0u as=0p ps=0u w=420000u l=150000u
.ends

.subckt sky130_fd_sc_hd__decap_6 VGND VPWR VPB VNB
X0 VGND VPWR VGND VNB sky130_fd_pr__nfet_01v8 ad=2.86e+11p pd=3.24e+06u as=0p ps=0u w=550000u l=1.97e+06u
X1 VPWR VGND VPWR VPB sky130_fd_pr__pfet_01v8_hvt ad=4.524e+11p pd=4.52e+06u as=0p ps=0u w=870000u l=1.97e+06u
.ends
